Version 4.1
SHEET 1 1896 1892
WIRE 432 -32 208 -32
WIRE 576 -32 432 -32
WIRE 752 -32 656 -32
WIRE 208 0 208 -32
WIRE 432 0 432 -32
WIRE 832 80 832 -32
WIRE 1088 80 832 80
WIRE 1184 80 1088 80
WIRE 208 96 208 64
WIRE 208 96 -96 96
WIRE 1088 96 1088 80
WIRE 1184 96 1184 80
WIRE 1200 96 1184 96
WIRE 256 112 256 0
WIRE 480 112 480 0
WIRE 480 112 256 112
WIRE 576 112 480 112
WIRE -96 128 -96 96
WIRE 1200 176 1184 176
WIRE 1088 192 1088 160
WIRE 1088 192 832 192
WIRE 1184 192 1184 176
WIRE 1184 192 1088 192
WIRE 576 224 576 192
WIRE -96 240 -96 208
WIRE 432 240 432 64
WIRE 432 240 -96 240
WIRE 432 256 432 240
WIRE 480 256 480 112
WIRE 208 272 208 96
WIRE 256 272 256 112
WIRE 208 368 208 336
WIRE 432 368 432 320
WIRE 432 368 208 368
WIRE 832 368 832 192
WIRE 832 368 432 368
WIRE 432 432 432 368
FLAG 432 432 0
FLAG 576 224 0
SYMBOL voltage -96 112 R0
WINDOW 123 0 0 Left 0
WINDOW 39 0 0 Left 0
SYMATTR InstName V1
SYMATTR Value SINE(0 340 60)
SYMBOL Misc\\SCR 224 64 R180
SYMATTR InstName U1
SYMATTR Value C106M
SYMBOL Misc\\SCR 448 64 R180
SYMATTR InstName U2
SYMATTR Value C106M
SYMBOL Misc\\SCR 224 336 R180
SYMATTR InstName U3
SYMATTR Value C106M
SYMBOL Misc\\SCR 448 320 R180
SYMATTR InstName U4
SYMATTR Value C106M
SYMBOL ind 736 -16 R270
WINDOW 0 32 56 VTop 2
WINDOW 3 5 56 VBottom 2
SYMATTR InstName L1
SYMATTR Value 400m
SYMBOL res 672 -48 R90
WINDOW 0 0 56 VBottom 2
WINDOW 3 32 56 VTop 2
SYMATTR InstName R1
SYMATTR Value 5
SYMBOL voltage 576 96 R0
WINDOW 123 0 0 Left 0
WINDOW 39 0 0 Left 0
SYMATTR InstName V2
SYMATTR Value PULSE(0 5 2.13m 1n 1n 20m 16.67m)
SYMBOL res 1184 80 R0
SYMATTR InstName R2
SYMATTR Value 10
SYMBOL cap 1072 96 R0
SYMATTR InstName C1
SYMATTR Value 1m
TEXT -128 456 Left 2 !.tran 0 1 0
TEXT 1264 -136 Left 1 !* C:\\Program Files\\LTC\\LTspiceIV\\My Drawings\\My SCR master-1.asc\n \n******************************************************\n* Model generated on 17 Dec 2009\n* Model format: LTspice\n* Thyristor / SCR macro model\n* External node designations\n* Node A -> anode\n* Node G -> gate\n* Node K -> cathode\n*\n* The parameters are:\n* Vdrm - forward / reverse breakdown Voltage.\n* Itrms - r.m.s. anode current.\n* Itsm - max. non-repetitive peak anode current.\n* Igt - min. gate trigger current.\n* Vgt - min. gate Voltage.\n* Ihold - min. anode current below which device will\n* switch off.\n* Ileak - forward / reverse leakage current @ Vdrm.\n* Cak - anode to cathode capacitance.\n* GRratio - use to trim exact Vgt versus Igt.\n*\n* The params below are typical or worst case examples\n* as stated in the manufacturers datasheets. This\n* means if you design for that then a real one should\n* work!\n*\n* Double-click on the SpiceModel line in properties\n* box to see a drop-down select list of the following\n* types.\n******************************************************\n \n.SUBCKT 2N5061 A G K ; Motorola 2N5061 - model default\n+params: Vdrm=60 Itrms=0.8A Itsm=10A Igt=200uA Vgt=0.8\n+ Ihold=5mA Ileak=50uA Cak=50pF GRratio=4\n \nQ1 2 G K 0 QNG\nQ2 1 3 K 0 QNL OFF\nQ3 3 1 A 0 QPL OFF\nD1 1 2 Drev\nD2 A 4 DVA\nD3 K 4 DVA\nI1 A 1 {Ihold} load\nI2 3 K {Ihold} load\nRS A 1 1000k\nRL A K {Rleak}\nC1 A K {Cak}\n \n.param Grbe=(Vgt/Igt)/GRratio\n.param Ggain=Ihold/Igt\n.param Rleak=Vdrm/Ileak\n \n.model QNL NPN(IS=640F Bf=50 RC=.45 TF=5.95u)\n.model QNG NPN(Bf=Ggain Rb=Grbe Vje=Vgt Tf=.3nS Tr=6nS Cje=2pF Cjc=1pF)\n.model QPL PNP(IS=640F Bf=50 RC=.45 TF=5.95u)\n.model DVA D(Vj=.71 BV=Vdrm Cjo=1p)\n.model Drev D(Vfwd=.71)\n.ENDS\n \n.SUBCKT TYN225 A G K ; ST TYN225\nXSCR1 A G K 2N5061\n+params: Vdrm=200 Itrms=25 Itsm=300 Igt=40mA Vgt=1.3\n+ Ihold=50mA Ileak=4mA GRratio=2\n.ENDS\n \n\n.SUBCKT TYN825RG A G K ; ST TYN825RG\nXSCR1 A G K 2N5061\n+params: Vdrm=800 Itrms=25 Itsm=300 Igt=40mA Vgt=1.3\n+ Ihold=50mA Ileak=4mA GRratio=2\n.ENDS\n \n\n.SUBCKT C106D A G K ; Fagor C106D1 & ON Semiconductor C106D\nXSCR1 A G K 2N5061\n+params: Vdrm=400 Itrms=4 Itsm=20 Igt=200uA Vgt=0.8\n+ Ihold=5mA Ileak=400uA\n.ENDS\n \n\n.SUBCKT FS0831DH A G K ; Fagor FS0831DH\nXSCR1 A G K 2N5061\n+params: Vdrm=400 Itrms=8 Itsm=95 Igt=15mA Vgt=1.3\n+ Ihold=30mA Ileak=100uA GRratio=2\n.ENDS\n \n\n.SUBCKT C106M A G K ; ON Semiconductor C106M\nXSCR1 A G K 2N5061\n+params: Vdrm=600 Itrms=4 Itsm=20 Igt=35uA Vgt=0.75\n+ Ihold=6mA Ileak=100uA\n.ENDS\n \n\n.SUBCKT BT151-800R A G K ; Philips BT151-800R\nXSCR1 A G K 2N5061\n+params: Vdrm=800 Itrms=12 Itsm=120 Igt=15mA Vgt=1.5\n+ Ihold=20mA Ileak=500uA GRratio=3\n.ENDS\n \n\n.SUBCKT 2N6509G A G K ; ON Semiconductor 2N6509G\nXSCR1 A G K 2N5061\n+params: Vdrm=800 Itrms=25 Itsm=250 Igt=75mA Vgt=1.5\n+ Ihold=80mA Ileak=2mA GRratio=2\n.ENDS\n \n\n.SUBCKT FS2510NH A G K ; Fagor FS2510NH\nXSCR1 A G K 2N5061\n+params: Vdrm=400 Itrms=25 Itsm=270 Igt=40mA Vgt=1.3\n+ Ihold=50mA Ileak=2mA GRratio=2\n.ENDS
